This is conent from Developer
added line 2 to developer.
new line.
